Version 4
SHEET 1 1620 1232
WIRE -208 -192 -272 -192
WIRE -80 -192 -128 -192
WIRE -80 -144 -80 -192
WIRE -32 -144 -80 -144
WIRE -16 -144 -32 -144
WIRE 688 -112 608 -112
WIRE -80 -80 -80 -144
WIRE -80 -80 -272 -80
WIRE 608 -80 608 -112
WIRE 688 -80 688 -112
WIRE 1120 16 1120 -48
WIRE -16 48 -16 -144
WIRE 512 48 -16 48
WIRE 608 48 608 0
WIRE 608 48 592 48
WIRE 1120 144 1120 96
WIRE 1120 144 1024 144
WIRE 1216 144 1120 144
WIRE -384 160 -384 144
WIRE 1120 176 1120 144
WIRE 704 224 704 176
WIRE 528 240 528 224
WIRE 608 240 608 48
WIRE 672 240 608 240
WIRE -384 256 -384 240
WIRE 864 256 736 256
WIRE 880 256 864 256
WIRE 1072 256 880 256
WIRE 672 272 640 272
WIRE 1216 272 1120 272
WIRE 704 320 704 288
WIRE 1024 320 1024 144
WIRE 1120 320 1024 320
WIRE 1120 368 1120 320
WIRE -368 384 -368 368
WIRE 368 384 336 384
WIRE 528 384 528 320
WIRE 528 384 448 384
WIRE 544 384 528 384
WIRE 640 384 640 272
WIRE 640 384 544 384
WIRE 656 384 640 384
WIRE 880 384 880 256
WIRE 880 384 736 384
WIRE 336 416 336 384
WIRE 1072 448 992 448
WIRE -368 480 -368 464
WIRE 1120 480 1120 464
WIRE 1216 480 1216 272
WIRE 1216 480 1120 480
WIRE 1120 512 1120 480
WIRE -368 640 -368 624
WIRE -368 736 -368 720
WIRE -368 896 -368 880
WIRE -368 992 -368 976
FLAG -384 256 0
FLAG -384 144 12_REG_SIM
FLAG 704 176 3.3_REG
FLAG 864 256 OP_OUT
FLAG 336 416 0
FLAG -272 -80 12_REG_SIM
FLAG 704 320 0
FLAG -368 480 0
FLAG -368 368 NOISE
FLAG -272 -192 NOISE
FLAG 688 -80 0
FLAG 528 224 3.3_REG
FLAG 1216 144 ENABLE_PULSE
FLAG -368 736 0
FLAG -368 624 DIGI_PIN
FLAG 1120 -48 3.3_REG
FLAG 992 448 DIGI_PIN
FLAG 544 384 DIV
FLAG 608 48 INPUT_TH
FLAG 1120 512 0
FLAG -32 -144 noise_sig
FLAG -368 880 3.3_REG
FLAG -368 992 0
SYMBOL voltage -384 144 R0
SYMATTR InstName V1
SYMATTR Value PULSE(0 12 4m 10m 1m 5m 20m 3)
SYMBOL res 752 368 R90
WINDOW 0 0 56 VBottom 2
WINDOW 3 32 56 VTop 2
SYMATTR InstName R1
SYMATTR Value 3.3k
SYMBOL res 464 368 R90
WINDOW 0 0 56 VBottom 2
WINDOW 3 32 56 VTop 2
SYMATTR InstName R2
SYMATTR Value 10k
SYMBOL bv -368 368 R0
SYMATTR InstName B1
SYMATTR Value V=(white(2e6*time)/10)
SYMBOL res 544 336 R180
WINDOW 0 36 76 Left 2
WINDOW 3 36 40 Left 2
SYMATTR InstName R3
SYMATTR Value 3.3k
SYMBOL res 608 32 R90
WINDOW 0 0 56 VBottom 2
WINDOW 3 32 56 VTop 2
SYMATTR InstName R6
SYMATTR Value 10k
SYMBOL res 624 16 R180
WINDOW 0 36 76 Left 2
WINDOW 3 36 40 Left 2
SYMATTR InstName R5
SYMATTR Value 3.3k
SYMBOL res 1136 112 R180
WINDOW 0 36 76 Left 2
WINDOW 3 36 40 Left 2
SYMATTR InstName R8
SYMATTR Value 1K
SYMBOL voltage -368 624 R0
SYMATTR InstName V3
SYMATTR Value PULSE(0 3.3 10m 0 0 10m 10 3)
SYMBOL nmos 1072 176 R0
SYMATTR InstName M2
SYMATTR Value BSB012NE2LX
SYMBOL nmos 1072 368 R0
SYMATTR InstName M1
SYMATTR Value BSB012NE2LX
SYMBOL Opamps/LTC6240 704 256 R0
SYMATTR InstName U2
SYMBOL res -112 -208 R90
WINDOW 0 0 56 VBottom 2
WINDOW 3 32 56 VTop 2
SYMATTR InstName R4
SYMATTR Value 10k
SYMBOL voltage -368 880 R0
SYMATTR InstName V4
SYMATTR Value 3.3V
TEXT 1128 1136 Left 2 !.tran 1u 80m
TEXT 880 1184 Left 2 !* .step param R LIST 53K 80K 100K
TEXT 392 624 Left 2 ;Positive feedback opamp model to mitigate soft start for 12V regulator\nwhen op_out and digi_pin are high then pulse is enabled (for driving piezo transducers)
