Version 4
SHEET 1 2156 1376
WIRE 64 128 -48 128
WIRE 208 128 64 128
WIRE 272 128 208 128
WIRE 992 144 928 144
WIRE 1120 144 1072 144
WIRE 64 160 64 128
WIRE 816 192 608 192
WIRE 928 192 928 144
WIRE 928 192 816 192
WIRE 960 192 928 192
WIRE -352 208 -352 160
WIRE -208 208 -208 160
WIRE 208 224 208 128
WIRE 272 224 272 128
WIRE 384 256 320 256
WIRE 464 256 384 256
WIRE 960 256 960 192
WIRE 1120 256 1120 144
WIRE 64 272 64 240
WIRE 160 272 64 272
WIRE 816 288 816 256
WIRE 1312 320 1168 320
WIRE 1408 320 1312 320
WIRE 160 336 64 336
WIRE 384 336 384 256
WIRE -352 368 -352 288
WIRE -208 368 -208 288
WIRE 1408 368 1408 320
WIRE 64 400 64 336
WIRE 64 400 0 400
WIRE 96 400 64 400
WIRE 160 400 96 400
WIRE 1312 400 1168 400
WIRE 768 432 688 432
WIRE 912 432 848 432
WIRE 64 448 64 400
WIRE 272 448 272 432
WIRE 1200 464 1168 464
WIRE 1408 480 1408 432
WIRE 1408 480 1312 480
WIRE 912 496 880 496
WIRE 1408 496 1408 480
WIRE 64 528 64 512
WIRE 208 528 208 432
WIRE 208 528 64 528
WIRE 272 528 272 512
WIRE 272 528 208 528
WIRE 1040 528 1040 512
WIRE 208 544 208 528
WIRE 1424 544 1280 544
WIRE 768 576 720 576
WIRE 880 576 880 496
WIRE 880 576 848 576
WIRE 928 576 880 576
WIRE 1200 576 1200 464
WIRE 1200 576 1008 576
WIRE 1280 576 1280 544
WIRE 1280 576 1200 576
WIRE 0 608 0 400
WIRE 384 608 384 416
WIRE 384 608 0 608
WIRE 720 608 720 576
FLAG -352 368 0
FLAG -352 160 V12
FLAG -208 368 0
FLAG -208 160 V33
FLAG 208 544 0
FLAG 96 400 rc
FLAG -48 128 V33
FLAG 384 256 PWM_OUT
FLAG 720 608 0
FLAG 816 288 0
FLAG 1408 496 0
FLAG 688 432 PWM_OUT
FLAG 608 192 V12
FLAG 1040 528 0
FLAG 1200 576 driver_out
FLAG 1408 320 VCC_LT
SYMBOL voltage -352 192 R0
SYMATTR InstName V2
SYMATTR Value 12V
SYMBOL voltage -208 192 R0
SYMATTR InstName V1
SYMATTR Value 3.3V
SYMBOL cap 48 448 R0
SYMATTR InstName C3
SYMATTR Value 56p
SYMATTR SpiceLine mfg="   ---" pn="   ---" type="   ---"
SYMBOL res 368 320 R0
SYMATTR InstName R5
SYMATTR Value 105K
SYMBOL res 48 144 R0
SYMATTR InstName R6
SYMATTR Value 10K
SYMBOL AutoGenerated/ICM7555 192 288 R0
SYMATTR InstName U2
SYMBOL PowerProducts/LT3469 1040 384 R0
SYMATTR InstName U3
SYMBOL cap 800 192 R0
SYMATTR InstName C4
SYMATTR Value 1µ
SYMBOL res 864 416 R90
WINDOW 0 0 56 VBottom 2
WINDOW 3 32 56 VTop 2
SYMATTR InstName R8
SYMATTR Value 9.09K
SYMBOL res 864 560 R90
WINDOW 0 0 56 VBottom 2
WINDOW 3 32 56 VTop 2
SYMATTR InstName R9
SYMATTR Value 10K
SYMBOL res 1024 560 R90
WINDOW 0 0 56 VBottom 2
WINDOW 3 32 56 VTop 2
SYMATTR InstName R10
SYMATTR Value 100K
SYMBOL res 1328 416 R180
WINDOW 0 36 76 Left 2
WINDOW 3 36 40 Left 2
SYMATTR InstName R11
SYMATTR Value 453K
SYMBOL res 1328 496 R180
WINDOW 0 36 76 Left 2
WINDOW 3 36 40 Left 2
SYMATTR InstName R12
SYMATTR Value 16.5K
SYMBOL cap 1392 368 R0
SYMATTR InstName C5
SYMATTR Value .47µ
SYMBOL ind 976 160 R270
WINDOW 0 32 56 VTop 2
WINDOW 3 5 56 VBottom 2
SYMATTR InstName L2
SYMATTR Value 47µ
SYMATTR SpiceLine Ipk=1.8 Rser=135m Rpar=32.406K Cpar=0 mfg="Bourns, Inc." pn="SRR1240-470M"
SYMBOL cap 256 448 R0
SYMATTR InstName C1
SYMATTR Value 1p
SYMATTR SpiceLine mfg="   ---" pn="   ---" type="   ---"
TEXT -208 -152 Left 2 !.tran 1m 4m startup
TEXT -208 -104 Left 2 !.include ./icm7555.sub
TEXT 328 776 Left 2 ;100kHz pulse driving LT3469 piezo driver
