Version 4
SHEET 1 980 680
WIRE -32 176 -32 128
WIRE 112 176 112 128
WIRE 480 208 368 208
WIRE 688 208 688 144
WIRE 688 208 640 208
WIRE 752 208 688 208
WIRE 864 208 832 208
WIRE 368 224 368 208
WIRE 480 272 368 272
WIRE 864 272 864 208
WIRE 864 272 640 272
WIRE -32 336 -32 256
WIRE 112 336 112 256
WIRE 480 336 288 336
WIRE 688 336 640 336
WIRE 752 336 688 336
WIRE 864 336 864 272
WIRE 864 336 832 336
WIRE 480 384 432 384
WIRE 736 384 640 384
WIRE 368 432 368 272
WIRE 496 432 368 432
WIRE 688 432 688 336
WIRE 688 432 496 432
WIRE 736 448 736 384
WIRE 368 464 368 432
WIRE 496 496 496 432
WIRE 368 544 368 528
WIRE 736 544 736 512
FLAG -32 336 0
FLAG -32 128 V12
FLAG 112 336 0
FLAG 112 128 V33
FLAG 368 544 0
FLAG 688 144 V33
FLAG 288 336 PWM_OUT
FLAG 368 224 0
FLAG 736 544 0
FLAG 432 384 V33
FLAG 496 496 rc
SYMBOL voltage -32 160 R0
SYMATTR InstName V1
SYMATTR Value 12V
SYMBOL voltage 112 160 R0
SYMATTR InstName V2
SYMATTR Value 3.3V
SYMBOL cap 352 464 R0
SYMATTR InstName C1
SYMATTR Value 100p
SYMATTR SpiceLine mfg="   ---" pn="   ---" type="   ---"
SYMBOL res 848 320 R90
WINDOW 0 0 56 VBottom 2
WINDOW 3 32 56 VTop 2
SYMATTR InstName R1
SYMATTR Value 100K
SYMBOL res 736 224 R270
WINDOW 0 32 56 VTop 2
WINDOW 3 0 56 VBottom 2
SYMATTR InstName R2
SYMATTR Value 30K
SYMBOL AutoGenerated/ICM7555 512 256 R0
SYMATTR InstName U1
SYMBOL cap 720 448 R0
SYMATTR InstName C2
SYMATTR Value 10n
SYMATTR SpiceLine mfg="   ---" pn="   ---" type="   ---"
TEXT -48 -64 Left 2 !.tran 1m 4m startup
TEXT -48 -16 Left 2 !.include ./icm7555.sub
